<?xml version="1.0" encoding="UTF-8"?>

<!-- generated on 2025-06-06 12:27:32 by Eclipse SUMO jtrrouter Version 1.23.1
<jtrrouterConfiguration xmlns:xsi="http://www.w3.org/2001/XMLSchema-instance" xsi:noNamespaceSchemaLocation="http://sumo.dlr.de/xsd/jtrrouterConfiguration.xsd">

    <input>
        <net-file value="C:\TrafficMonitor\TrafficMonitor\sumo_envs\LONG_GANG\./env/osm.net.xml"/>
        <route-files value="C:\TrafficMonitor\TrafficMonitor\sumo_envs\LONG_GANG\./testflow.trip.xml"/>
        <turn-ratio-files value="C:\TrafficMonitor\TrafficMonitor\sumo_envs\LONG_GANG\./testflow.turndefs.xml"/>
    </input>

    <output>
        <output-file value="C:\TrafficMonitor\TrafficMonitor\sumo_envs\LONG_GANG\./osm.rou.xml"/>
    </output>

    <processing>
        <randomize-flows value="True"/>
        <accept-all-destinations value="True"/>
    </processing>

    <defaults>
        <departlane value="random"/>
    </defaults>

    <report>
        <no-warnings value="true"/>
    </report>

    <random_number>
        <seed value="777"/>
    </random_number>

</jtrrouterConfiguration>
-->

<routes xmlns:xsi="http://www.w3.org/2001/XMLSchema-instance" xsi:noNamespaceSchemaLocation="http://sumo.dlr.de/xsd/routes_file.xsd">
    <vType id="background" length="5.00" color="155,89,182" tau="1.0"/>
    <vehicle id="1125790983#0__0__background.0" type="background" depart="3.58" departLane="random">
        <route edges="1125790983#0 1125790983#1 1125790983#2 1125684496#0 1125684496#1 1125597092#1 1125597092#1.222 1125597092#2"/>
    </vehicle>
    <vehicle id="1125790983#0__0__background.1" type="background" depart="10.88" departLane="random">
        <route edges="1125790983#0 1125790983#1 1125790983#2 1125684496#0 1125684496#1 1125597092#1 1125597092#1.222 1125597092#2"/>
    </vehicle>
    <vehicle id="1125790983#0__0__background.2" type="background" depart="11.03" departLane="random">
        <route edges="1125790983#0 1125790983#1 1125790983#2 1125684496#0 1125684496#1 1125597092#1 1125597092#1.222 1125597092#2"/>
    </vehicle>
    <vehicle id="1125695391#0__0__background.0" type="background" depart="15.93" departLane="random">
        <route edges="1125695391#0 1125695391#0.789 1125695392#0 1125695392#7.174 1125695392#8"/>
    </vehicle>
    <vehicle id="1125790983#0__0__background.3" type="background" depart="17.37" departLane="random">
        <route edges="1125790983#0 1125790983#1 1125790983#2 1125684496#0 1125684496#1 1125597092#1 1125597092#1.222 1125597092#2"/>
    </vehicle>
    <vehicle id="1125790983#0__0__background.4" type="background" depart="25.90" departLane="random">
        <route edges="1125790983#0 1125790983#1 1125790983#2 1125684496#0 1125684496#1 1125597092#1 1125597092#1.222 1125597092#2"/>
    </vehicle>
    <vType id="ego" length="5.00" color="26,188,156" tau="1.0"/>
    <vehicle id="1125790983#0__0__ego.0" type="ego" depart="26.70" departLane="random">
        <route edges="1125790983#0 1125790983#1 1125790983#2 1125684496#0 1125684496#1 1125597092#1 1125597092#1.222 1125597092#2"/>
    </vehicle>
    <vehicle id="1125790983#0__0__background.5" type="background" depart="28.79" departLane="random">
        <route edges="1125790983#0 1125790983#1 1125790983#2 1125684496#0 1125684496#1 1125597092#1 1125597092#1.222 1125597092#2"/>
    </vehicle>
    <vehicle id="1125790983#0__0__ego.1" type="ego" depart="36.79" departLane="random">
        <route edges="1125790983#0 1125790983#1 1125790983#2 1125684496#0 1125684496#1 1125597092#1 1125597092#1.222 1125597092#2"/>
    </vehicle>
    <vehicle id="1125790983#0__0__ego.2" type="ego" depart="40.54" departLane="random">
        <route edges="1125790983#0 1125790983#1 1125790983#2 1125684496#0 1125684496#1 1125597092#1 1125597092#1.222 1125597092#2"/>
    </vehicle>
    <vehicle id="1125790983#0__0__background.6" type="background" depart="44.46" departLane="random">
        <route edges="1125790983#0 1125790983#1 1125790983#2 1125684496#0 1125684496#1 1125597092#1 1125597092#1.222 1125597092#2"/>
    </vehicle>
    <vehicle id="1125695391#0__0__ego.0" type="ego" depart="47.92" departLane="random">
        <route edges="1125695391#0 1125695391#0.789 1125695392#0 1125695392#7.174 1125695392#8"/>
    </vehicle>
    <vehicle id="1125790983#0__0__ego.3" type="ego" depart="52.13" departLane="random">
        <route edges="1125790983#0 1125790983#1 1125790983#2 1125684496#0 1125684496#1 1125597092#1 1125597092#1.222 1125597092#2"/>
    </vehicle>
    <vehicle id="1125790983#0__0__background.7" type="background" depart="54.94" departLane="random">
        <route edges="1125790983#0 1125790983#1 1125790983#2 1125684496#0 1125684496#1 1125597092#1 1125597092#1.222 1125597092#2"/>
    </vehicle>
    <vehicle id="1125790983#0__1__background.0" type="background" depart="65.68" departLane="random">
        <route edges="1125790983#0 1125790983#1 1125790983#2 1125684496#0 1125684496#1 1125597092#1 1125597092#1.222 1125597092#2"/>
    </vehicle>
    <vehicle id="1125695391#0__1__background.0" type="background" depart="66.54" departLane="random">
        <route edges="1125695391#0 1125695391#0.789 1125695392#0 1125695392#7.174 1125695392#8"/>
    </vehicle>
    <vehicle id="1125790983#0__1__ego.0" type="ego" depart="66.80" departLane="random">
        <route edges="1125790983#0 1125790983#1 1125790983#2 1125684496#0 1125684496#1 1125597092#1 1125597092#1.222 1125597092#2"/>
    </vehicle>
    <vehicle id="1125790983#0__1__background.1" type="background" depart="67.71" departLane="random">
        <route edges="1125790983#0 1125790983#1 1125790983#2 1125684496#0 1125684496#1 1125597092#1 1125597092#1.222 1125597092#2"/>
    </vehicle>
    <vehicle id="1125790983#0__1__background.2" type="background" depart="70.82" departLane="random">
        <route edges="1125790983#0 1125790983#1 1125790983#2 1125684496#0 1125684496#1 1125597092#1 1125597092#1.222 1125597092#2"/>
    </vehicle>
    <vehicle id="1125790983#0__1__ego.1" type="ego" depart="72.32" departLane="random">
        <route edges="1125790983#0 1125790983#1 1125790983#2 1125684496#0 1125684496#1 1125597092#1 1125597092#1.222 1125597092#2"/>
    </vehicle>
    <vehicle id="1125790983#0__1__background.3" type="background" depart="79.28" departLane="random">
        <route edges="1125790983#0 1125790983#1 1125790983#2 1125684496#0 1125684496#1 1125597092#1 1125597092#1.222 1125597092#2"/>
    </vehicle>
    <vehicle id="1125790983#0__1__ego.2" type="ego" depart="80.32" departLane="random">
        <route edges="1125790983#0 1125790983#1 1125790983#2 1125684496#0 1125684496#1 1125597092#1 1125597092#1.222 1125597092#2"/>
    </vehicle>
    <vehicle id="1125790983#0__1__ego.3" type="ego" depart="86.95" departLane="random">
        <route edges="1125790983#0 1125790983#1 1125790983#2 1125684496#0 1125684496#1 1125597092#1 1125597092#1.222 1125597092#2"/>
    </vehicle>
    <vehicle id="1125790983#0__1__background.4" type="background" depart="95.91" departLane="random">
        <route edges="1125790983#0 1125790983#1 1125790983#2 1125684496#0 1125684496#1 1125597092#1 1125597092#1.222 1125597092#2"/>
    </vehicle>
    <vehicle id="1125695391#0__1__ego.0" type="ego" depart="100.85" departLane="random">
        <route edges="1125695391#0 1125695391#0.789 1125695392#0 1125695392#7.174 1125695392#8"/>
    </vehicle>
    <vehicle id="1125790983#0__1__background.5" type="background" depart="101.30" departLane="random">
        <route edges="1125790983#0 1125790983#1 1125790983#2 1125684496#0 1125684496#1 1125597092#1 1125597092#1.222 1125597092#2"/>
    </vehicle>
    <vehicle id="1125790983#0__1__background.6" type="background" depart="108.23" departLane="random">
        <route edges="1125790983#0 1125790983#1 1125790983#2 1125684496#0 1125684496#1 1125597092#1 1125597092#1.222 1125597092#2"/>
    </vehicle>
    <vehicle id="1125790983#0__1__background.7" type="background" depart="116.15" departLane="random">
        <route edges="1125790983#0 1125790983#1 1125790983#2 1125684496#0 1125684496#1 1125597092#1 1125597092#1.222 1125597092#2"/>
    </vehicle>
    <vehicle id="1125790983#0__2__ego.0" type="ego" depart="120.84" departLane="random">
        <route edges="1125790983#0 1125790983#1 1125790983#2 1125684496#0 1125684496#1 1125597092#1 1125597092#1.222 1125597092#2"/>
    </vehicle>
    <vehicle id="1125790983#0__2__background.0" type="background" depart="124.16" departLane="random">
        <route edges="1125790983#0 1125790983#1 1125790983#2 1125684496#0 1125684496#1 1125597092#1 1125597092#1.222 1125597092#2"/>
    </vehicle>
    <vehicle id="1125790983#0__2__background.1" type="background" depart="125.99" departLane="random">
        <route edges="1125790983#0 1125790983#1 1125790983#2 1125684496#0 1125684496#1 1125597092#1 1125597092#1.222 1125597092#2"/>
    </vehicle>
    <vehicle id="1125790983#0__2__background.2" type="background" depart="127.95" departLane="random">
        <route edges="1125790983#0 1125790983#1 1125790983#2 1125684496#0 1125684496#1 1125597092#1 1125597092#1.222 1125597092#2"/>
    </vehicle>
    <vehicle id="1125695391#0__2__ego.0" type="ego" depart="135.68" departLane="random">
        <route edges="1125695391#0 1125695391#0.789 1125695392#0 1125695392#7.174 1125695392#8"/>
    </vehicle>
    <vehicle id="1125790983#0__2__ego.1" type="ego" depart="136.75" departLane="random">
        <route edges="1125790983#0 1125790983#1 1125790983#2 1125684496#0 1125684496#1 1125597092#1 1125597092#1.222 1125597092#2"/>
    </vehicle>
    <vehicle id="1125790983#0__2__ego.2" type="ego" depart="143.35" departLane="random">
        <route edges="1125790983#0 1125790983#1 1125790983#2 1125684496#0 1125684496#1 1125597092#1 1125597092#1.222 1125597092#2"/>
    </vehicle>
    <vehicle id="1125790983#0__2__background.3" type="background" depart="148.29" departLane="random">
        <route edges="1125790983#0 1125790983#1 1125790983#2 1125684496#0 1125684496#1 1125597092#1 1125597092#1.222 1125597092#2"/>
    </vehicle>
    <vehicle id="1125790983#0__2__background.4" type="background" depart="153.66" departLane="random">
        <route edges="1125790983#0 1125790983#1 1125790983#2 1125684496#0 1125684496#1 1125597092#1 1125597092#1.222 1125597092#2"/>
    </vehicle>
    <vehicle id="1125790983#0__2__background.5" type="background" depart="163.19" departLane="random">
        <route edges="1125790983#0 1125790983#1 1125790983#2 1125684496#0 1125684496#1 1125597092#1 1125597092#1.222 1125597092#2"/>
    </vehicle>
    <vehicle id="1125695391#0__2__background.0" type="background" depart="166.02" departLane="random">
        <route edges="1125695391#0 1125695391#0.789 1125695392#0 1125695392#7.174 1125695392#8"/>
    </vehicle>
    <vehicle id="1125790983#0__2__background.6" type="background" depart="166.02" departLane="random">
        <route edges="1125790983#0 1125790983#1 1125790983#2 1125684496#0 1125684496#1 1125597092#1 1125597092#1.222 1125597092#2"/>
    </vehicle>
    <vehicle id="1125790983#0__2__ego.3" type="ego" depart="171.52" departLane="random">
        <route edges="1125790983#0 1125790983#1 1125790983#2 1125684496#0 1125684496#1 1125597092#1 1125597092#1.222 1125597092#2"/>
    </vehicle>
    <vehicle id="1125790983#0__2__background.7" type="background" depart="173.45" departLane="random">
        <route edges="1125790983#0 1125790983#1 1125790983#2 1125684496#0 1125684496#1 1125597092#1 1125597092#1.222 1125597092#2"/>
    </vehicle>
    <vehicle id="1125790983#0__3__background.0" type="background" depart="180.03" departLane="random">
        <route edges="1125790983#0 1125790983#1 1125790983#2 1125684496#0 1125684496#1 1125597092#1 1125597092#1.222 1125597092#2"/>
    </vehicle>
    <vehicle id="1125790983#0__3__background.1" type="background" depart="184.54" departLane="random">
        <route edges="1125790983#0 1125790983#1 1125790983#2 1125684496#0 1125684496#1 1125597092#1 1125597092#1.222 1125597092#2"/>
    </vehicle>
    <vehicle id="1125790983#0__3__background.2" type="background" depart="189.31" departLane="random">
        <route edges="1125790983#0 1125790983#1 1125790983#2 1125684496#0 1125684496#1 1125597092#1 1125597092#1.222 1125597092#2"/>
    </vehicle>
    <vehicle id="1125695391#0__3__ego.0" type="ego" depart="205.22" departLane="random">
        <route edges="1125695391#0 1125695391#0.789 1125695392#0 1125695392#7.174 1125695392#8"/>
    </vehicle>
    <vehicle id="1125790983#0__3__ego.0" type="ego" depart="206.23" departLane="random">
        <route edges="1125790983#0 1125790983#1 1125790983#2 1125684496#0 1125684496#1 1125597092#1 1125597092#1.222 1125597092#2"/>
    </vehicle>
    <vehicle id="1125790983#0__3__ego.1" type="ego" depart="206.40" departLane="random">
        <route edges="1125790983#0 1125790983#1 1125790983#2 1125684496#0 1125684496#1 1125597092#1 1125597092#1.222 1125597092#2"/>
    </vehicle>
    <vehicle id="1125790983#0__3__background.3" type="background" depart="210.89" departLane="random">
        <route edges="1125790983#0 1125790983#1 1125790983#2 1125684496#0 1125684496#1 1125597092#1 1125597092#1.222 1125597092#2"/>
    </vehicle>
    <vehicle id="1125790983#0__3__ego.2" type="ego" depart="211.08" departLane="random">
        <route edges="1125790983#0 1125790983#1 1125790983#2 1125684496#0 1125684496#1 1125597092#1 1125597092#1.222 1125597092#2"/>
    </vehicle>
    <vehicle id="1125790983#0__3__ego.3" type="ego" depart="219.15" departLane="random">
        <route edges="1125790983#0 1125790983#1 1125790983#2 1125684496#0 1125684496#1 1125597092#1 1125597092#1.222 1125597092#2"/>
    </vehicle>
    <vehicle id="1125695391#0__3__background.0" type="background" depart="228.14" departLane="random">
        <route edges="1125695391#0 1125695391#0.789 1125695392#0 1125695392#7.174 1125695392#8"/>
    </vehicle>
    <vehicle id="1125790983#0__3__background.4" type="background" depart="229.14" departLane="random">
        <route edges="1125790983#0 1125790983#1 1125790983#2 1125684496#0 1125684496#1 1125597092#1 1125597092#1.222 1125597092#2"/>
    </vehicle>
    <vehicle id="1125790983#0__3__background.5" type="background" depart="234.52" departLane="random">
        <route edges="1125790983#0 1125790983#1 1125790983#2 1125684496#0 1125684496#1 1125597092#1 1125597092#1.222 1125597092#2"/>
    </vehicle>
    <vehicle id="1125790983#0__3__background.6" type="background" depart="237.89" departLane="random">
        <route edges="1125790983#0 1125790983#1 1125790983#2 1125684496#0 1125684496#1 1125597092#1 1125597092#1.222 1125597092#2"/>
    </vehicle>
    <vehicle id="1125790983#0__3__background.7" type="background" depart="239.78" departLane="random">
        <route edges="1125790983#0 1125790983#1 1125790983#2 1125684496#0 1125684496#1 1125597092#1 1125597092#1.222 1125597092#2"/>
    </vehicle>
    <vehicle id="1125790983#0__4__background.0" type="background" depart="240.93" departLane="random">
        <route edges="1125790983#0 1125790983#1 1125790983#2 1125684496#0 1125684496#1 1125597092#1 1125597092#1.222 1125597092#2"/>
    </vehicle>
    <vehicle id="1125695391#0__4__ego.0" type="ego" depart="255.08" departLane="random">
        <route edges="1125695391#0 1125695391#0.789 1125695392#0 1125695392#7.174 1125695392#8"/>
    </vehicle>
    <vehicle id="1125790983#0__4__background.1" type="background" depart="257.02" departLane="random">
        <route edges="1125790983#0 1125790983#1 1125790983#2 1125684496#0 1125684496#1 1125597092#1 1125597092#1.222 1125597092#2"/>
    </vehicle>
    <vehicle id="1125790983#0__4__ego.0" type="ego" depart="262.54" departLane="random">
        <route edges="1125790983#0 1125790983#1 1125790983#2 1125684496#0 1125684496#1 1125597092#1 1125597092#1.222 1125597092#2"/>
    </vehicle>
    <vehicle id="1125790983#0__4__background.2" type="background" depart="263.79" departLane="random">
        <route edges="1125790983#0 1125790983#1 1125790983#2 1125684496#0 1125684496#1 1125597092#1 1125597092#1.222 1125597092#2"/>
    </vehicle>
    <vehicle id="1125790983#0__4__background.3" type="background" depart="263.95" departLane="random">
        <route edges="1125790983#0 1125790983#1 1125790983#2 1125684496#0 1125684496#1 1125597092#1 1125597092#1.222 1125597092#2"/>
    </vehicle>
    <vehicle id="1125790983#0__4__background.4" type="background" depart="269.77" departLane="random">
        <route edges="1125790983#0 1125790983#1 1125790983#2 1125684496#0 1125684496#1 1125597092#1 1125597092#1.222 1125597092#2"/>
    </vehicle>
    <vehicle id="1125790983#0__4__ego.1" type="ego" depart="274.33" departLane="random">
        <route edges="1125790983#0 1125790983#1 1125790983#2 1125684496#0 1125684496#1 1125597092#1 1125597092#1.222 1125597092#2"/>
    </vehicle>
    <vehicle id="1125790983#0__4__background.5" type="background" depart="277.00" departLane="random">
        <route edges="1125790983#0 1125790983#1 1125790983#2 1125684496#0 1125684496#1 1125597092#1 1125597092#1.222 1125597092#2"/>
    </vehicle>
    <vehicle id="1125695391#0__4__background.0" type="background" depart="281.20" departLane="random">
        <route edges="1125695391#0 1125695391#0.789 1125695392#0 1125695392#7.174 1125695392#8"/>
    </vehicle>
    <vehicle id="1125790983#0__4__background.6" type="background" depart="285.21" departLane="random">
        <route edges="1125790983#0 1125790983#1 1125790983#2 1125684496#0 1125684496#1 1125597092#1 1125597092#1.222 1125597092#2"/>
    </vehicle>
    <vehicle id="1125790983#0__4__ego.2" type="ego" depart="292.20" departLane="random">
        <route edges="1125790983#0 1125790983#1 1125790983#2 1125684496#0 1125684496#1 1125597092#1 1125597092#1.222 1125597092#2"/>
    </vehicle>
    <vehicle id="1125790983#0__4__ego.3" type="ego" depart="295.61" departLane="random">
        <route edges="1125790983#0 1125790983#1 1125790983#2 1125684496#0 1125684496#1 1125597092#1 1125597092#1.222 1125597092#2"/>
    </vehicle>
    <vehicle id="1125790983#0__4__background.7" type="background" depart="298.28" departLane="random">
        <route edges="1125790983#0 1125790983#1 1125790983#2 1125684496#0 1125684496#1 1125597092#1 1125597092#1.222 1125597092#2"/>
    </vehicle>
    <vehicle id="1125790983#0__5__background.0" type="background" depart="304.93" departLane="random">
        <route edges="1125790983#0 1125790983#1 1125790983#2 1125684496#0 1125684496#1 1125597092#1 1125597092#1.222 1125597092#2"/>
    </vehicle>
    <vehicle id="1125790983#0__5__background.1" type="background" depart="317.70" departLane="random">
        <route edges="1125790983#0 1125790983#1 1125790983#2 1125684496#0 1125684496#1 1125597092#1 1125597092#1.222 1125597092#2"/>
    </vehicle>
    <vehicle id="1125790983#0__5__background.2" type="background" depart="320.67" departLane="random">
        <route edges="1125790983#0 1125790983#1 1125790983#2 1125684496#0 1125684496#1 1125597092#1 1125597092#1.222 1125597092#2"/>
    </vehicle>
    <vehicle id="1125790983#0__5__background.3" type="background" depart="322.25" departLane="random">
        <route edges="1125790983#0 1125790983#1 1125790983#2 1125684496#0 1125684496#1 1125597092#1 1125597092#1.222 1125597092#2"/>
    </vehicle>
    <vehicle id="1125695391#0__5__background.0" type="background" depart="322.94" departLane="random">
        <route edges="1125695391#0 1125695391#0.789 1125695392#0 1125695392#7.174 1125695392#8"/>
    </vehicle>
    <vehicle id="1125790983#0__5__ego.0" type="ego" depart="322.96" departLane="random">
        <route edges="1125790983#0 1125790983#1 1125790983#2 1125684496#0 1125684496#1 1125597092#1 1125597092#1.222 1125597092#2"/>
    </vehicle>
    <vehicle id="1125790983#0__5__background.4" type="background" depart="323.85" departLane="random">
        <route edges="1125790983#0 1125790983#1 1125790983#2 1125684496#0 1125684496#1 1125597092#1 1125597092#1.222 1125597092#2"/>
    </vehicle>
    <vehicle id="1125790983#0__5__background.5" type="background" depart="329.11" departLane="random">
        <route edges="1125790983#0 1125790983#1 1125790983#2 1125684496#0 1125684496#1 1125597092#1 1125597092#1.222 1125597092#2"/>
    </vehicle>
    <vehicle id="1125790983#0__5__ego.1" type="ego" depart="330.31" departLane="random">
        <route edges="1125790983#0 1125790983#1 1125790983#2 1125684496#0 1125684496#1 1125597092#1 1125597092#1.222 1125597092#2"/>
    </vehicle>
    <vehicle id="1125790983#0__5__background.6" type="background" depart="332.12" departLane="random">
        <route edges="1125790983#0 1125790983#1 1125790983#2 1125684496#0 1125684496#1 1125597092#1 1125597092#1.222 1125597092#2"/>
    </vehicle>
    <vehicle id="1125695391#0__5__background.1" type="background" depart="335.51" departLane="random">
        <route edges="1125695391#0 1125695391#0.789 1125695392#0 1125695392#7.174 1125695392#8"/>
    </vehicle>
    <vehicle id="1125695391#0__5__background.2" type="background" depart="337.15" departLane="random">
        <route edges="1125695391#0 1125695391#0.789 1125695392#0 1125695392#7.174 1125695392#8"/>
    </vehicle>
    <vehicle id="1125695391#0__5__ego.0" type="ego" depart="338.52" departLane="random">
        <route edges="1125695391#0 1125695391#0.789 1125695392#0 1125695392#7.174 1125695392#8"/>
    </vehicle>
    <vehicle id="1125790983#0__5__ego.2" type="ego" depart="339.42" departLane="random">
        <route edges="1125790983#0 1125790983#1 1125790983#2 1125684496#0 1125684496#1 1125597092#1 1125597092#1.222 1125597092#2"/>
    </vehicle>
    <vehicle id="1125790983#0__5__background.7" type="background" depart="347.79" departLane="random">
        <route edges="1125790983#0 1125790983#1 1125790983#2 1125684496#0 1125684496#1 1125597092#1 1125597092#1.222 1125597092#2"/>
    </vehicle>
    <vehicle id="1125790983#0__5__ego.3" type="ego" depart="353.98" departLane="random">
        <route edges="1125790983#0 1125790983#1 1125790983#2 1125684496#0 1125684496#1 1125597092#1 1125597092#1.222 1125597092#2"/>
    </vehicle>
    <vehicle id="1125695391#0__6__background.0" type="background" depart="367.67" departLane="random">
        <route edges="1125695391#0 1125695391#0.789 1125695392#0 1125695392#7.174 1125695392#8"/>
    </vehicle>
    <vehicle id="1125695391#0__6__ego.0" type="ego" depart="372.88" departLane="random">
        <route edges="1125695391#0 1125695391#0.789 1125695392#0 1125695392#7.174 1125695392#8"/>
    </vehicle>
    <vehicle id="1125790983#0__6__background.0" type="background" depart="376.85" departLane="random">
        <route edges="1125790983#0 1125790983#1 1125790983#2 1125684496#0 1125684496#1 1125597092#1 1125597092#1.222 1125597092#2"/>
    </vehicle>
    <vehicle id="1125790983#0__6__background.1" type="background" depart="381.88" departLane="random">
        <route edges="1125790983#0 1125790983#1 1125790983#2 1125684496#0 1125684496#1 1125597092#1 1125597092#1.222 1125597092#2"/>
    </vehicle>
    <vehicle id="1125790983#0__6__background.2" type="background" depart="386.41" departLane="random">
        <route edges="1125790983#0 1125790983#1 1125790983#2 1125684496#0 1125684496#1 1125597092#1 1125597092#1.222 1125597092#2"/>
    </vehicle>
    <vehicle id="1125790983#0__6__ego.0" type="ego" depart="391.05" departLane="random">
        <route edges="1125790983#0 1125790983#1 1125790983#2 1125684496#0 1125684496#1 1125597092#1 1125597092#1.222 1125597092#2"/>
    </vehicle>
    <vehicle id="1125790983#0__6__background.3" type="background" depart="391.43" departLane="random">
        <route edges="1125790983#0 1125790983#1 1125790983#2 1125684496#0 1125684496#1 1125597092#1 1125597092#1.222 1125597092#2"/>
    </vehicle>
    <vehicle id="1125790983#0__6__background.4" type="background" depart="394.50" departLane="random">
        <route edges="1125790983#0 1125790983#1 1125790983#2 1125684496#0 1125684496#1 1125597092#1 1125597092#1.222 1125597092#2"/>
    </vehicle>
    <vehicle id="1125790983#0__6__ego.1" type="ego" depart="396.25" departLane="random">
        <route edges="1125790983#0 1125790983#1 1125790983#2 1125684496#0 1125684496#1 1125597092#1 1125597092#1.222 1125597092#2"/>
    </vehicle>
    <vehicle id="1125790983#0__6__ego.2" type="ego" depart="399.78" departLane="random">
        <route edges="1125790983#0 1125790983#1 1125790983#2 1125684496#0 1125684496#1 1125597092#1 1125597092#1.222 1125597092#2"/>
    </vehicle>
    <vehicle id="1125695391#0__6__background.1" type="background" depart="401.99" departLane="random">
        <route edges="1125695391#0 1125695391#0.789 1125695392#0 1125695392#7.174 1125695392#8"/>
    </vehicle>
    <vehicle id="1125790983#0__6__background.5" type="background" depart="402.07" departLane="random">
        <route edges="1125790983#0 1125790983#1 1125790983#2 1125684496#0 1125684496#1 1125597092#1 1125597092#1.222 1125597092#2"/>
    </vehicle>
    <vehicle id="1125790983#0__6__ego.3" type="ego" depart="408.55" departLane="random">
        <route edges="1125790983#0 1125790983#1 1125790983#2 1125684496#0 1125684496#1 1125597092#1 1125597092#1.222 1125597092#2"/>
    </vehicle>
    <vehicle id="1125695391#0__6__background.2" type="background" depart="408.64" departLane="random">
        <route edges="1125695391#0 1125695391#0.789 1125695392#0 1125695392#7.174 1125695392#8"/>
    </vehicle>
    <vehicle id="1125790983#0__6__background.6" type="background" depart="410.06" departLane="random">
        <route edges="1125790983#0 1125790983#1 1125790983#2 1125684496#0 1125684496#1 1125597092#1 1125597092#1.222 1125597092#2"/>
    </vehicle>
    <vehicle id="1125790983#0__6__background.7" type="background" depart="417.20" departLane="random">
        <route edges="1125790983#0 1125790983#1 1125790983#2 1125684496#0 1125684496#1 1125597092#1 1125597092#1.222 1125597092#2"/>
    </vehicle>
    <vehicle id="1125695391#0__7__background.0" type="background" depart="423.13" departLane="random">
        <route edges="1125695391#0 1125695391#0.789 1125695392#0 1125695392#7.174 1125695392#8"/>
    </vehicle>
    <vehicle id="1125790983#0__7__background.0" type="background" depart="430.70" departLane="random">
        <route edges="1125790983#0 1125790983#1 1125790983#2 1125684496#0 1125684496#1 1125597092#1 1125597092#1.222 1125597092#2"/>
    </vehicle>
    <vehicle id="1125695391#0__7__background.1" type="background" depart="430.78" departLane="random">
        <route edges="1125695391#0 1125695391#0.789 1125695392#0 1125695392#7.174 1125695392#8"/>
    </vehicle>
    <vehicle id="1125790983#0__7__ego.0" type="ego" depart="431.16" departLane="random">
        <route edges="1125790983#0 1125790983#1 1125790983#2 1125684496#0 1125684496#1 1125597092#1 1125597092#1.222 1125597092#2"/>
    </vehicle>
    <vehicle id="1125790983#0__7__background.1" type="background" depart="434.35" departLane="random">
        <route edges="1125790983#0 1125790983#1 1125790983#2 1125684496#0 1125684496#1 1125597092#1 1125597092#1.222 1125597092#2"/>
    </vehicle>
    <vehicle id="1125790983#0__7__ego.1" type="ego" depart="444.48" departLane="random">
        <route edges="1125790983#0 1125790983#1 1125790983#2 1125684496#0 1125684496#1 1125597092#1 1125597092#1.222 1125597092#2"/>
    </vehicle>
    <vehicle id="1125790983#0__7__ego.2" type="ego" depart="447.99" departLane="random">
        <route edges="1125790983#0 1125790983#1 1125790983#2 1125684496#0 1125684496#1 1125597092#1 1125597092#1.222 1125597092#2"/>
    </vehicle>
    <vehicle id="1125790983#0__7__background.2" type="background" depart="452.28" departLane="random">
        <route edges="1125790983#0 1125790983#1 1125790983#2 1125684496#0 1125684496#1 1125597092#1 1125597092#1.222 1125597092#2"/>
    </vehicle>
    <vehicle id="1125695391#0__7__ego.0" type="ego" depart="453.35" departLane="random">
        <route edges="1125695391#0 1125695391#0.789 1125695392#0 1125695392#7.174 1125695392#8"/>
    </vehicle>
    <vehicle id="1125790983#0__7__ego.3" type="ego" depart="458.31" departLane="random">
        <route edges="1125790983#0 1125790983#1 1125790983#2 1125684496#0 1125684496#1 1125597092#1 1125597092#1.222 1125597092#2"/>
    </vehicle>
    <vehicle id="1125790983#0__7__background.3" type="background" depart="460.74" departLane="random">
        <route edges="1125790983#0 1125790983#1 1125790983#2 1125684496#0 1125684496#1 1125597092#1 1125597092#1.222 1125597092#2"/>
    </vehicle>
    <vehicle id="1125790983#0__7__background.4" type="background" depart="468.45" departLane="random">
        <route edges="1125790983#0 1125790983#1 1125790983#2 1125684496#0 1125684496#1 1125597092#1 1125597092#1.222 1125597092#2"/>
    </vehicle>
    <vehicle id="1125790983#0__7__background.5" type="background" depart="469.18" departLane="random">
        <route edges="1125790983#0 1125790983#1 1125790983#2 1125684496#0 1125684496#1 1125597092#1 1125597092#1.222 1125597092#2"/>
    </vehicle>
    <vehicle id="1125790983#0__7__background.6" type="background" depart="474.30" departLane="random">
        <route edges="1125790983#0 1125790983#1 1125790983#2 1125684496#0 1125684496#1 1125597092#1 1125597092#1.222 1125597092#2"/>
    </vehicle>
    <vehicle id="1125790983#0__7__background.7" type="background" depart="474.83" departLane="random">
        <route edges="1125790983#0 1125790983#1 1125790983#2 1125684496#0 1125684496#1 1125597092#1 1125597092#1.222 1125597092#2"/>
    </vehicle>
    <vehicle id="1125695391#0__7__background.2" type="background" depart="478.96" departLane="random">
        <route edges="1125695391#0 1125695391#0.789 1125695392#0 1125695392#7.174 1125695392#8"/>
    </vehicle>
    <vehicle id="1125790983#0__8__background.0" type="background" depart="481.64" departLane="random">
        <route edges="1125790983#0 1125790983#1 1125790983#2 1125684496#0 1125684496#1 1125597092#1 1125597092#1.222 1125597092#2"/>
    </vehicle>
    <vehicle id="1125790983#0__8__ego.0" type="ego" depart="491.87" departLane="random">